<?xml version="1.0" encoding="UTF-8"?>

<!-- generated on 2021-04-28 11:29:03 by Eclipse SUMO netedit Version v1_9_0+0247-444d99e794
<configuration xmlns:xsi="http://www.w3.org/2001/XMLSchema-instance" xsi:noNamespaceSchemaLocation="http://sumo.dlr.de/xsd/netconvertConfiguration.xsd">

    <output>
        <output-file value="/home/romain/Desktop/ifsttar/sumo/helloworld/helloworld.net.xml"/>
    </output>

    <processing>
        <offset.disable-normalization value="true"/>
    </processing>

    <junctions>
        <no-turnarounds value="true"/>
    </junctions>

    <report>
        <aggregate-warnings value="5"/>
    </report>

</configuration>
-->

<net version="1.9" junctionCornerDetail="5" limitTurnSpeed="5.50" xmlns:xsi="http://www.w3.org/2001/XMLSchema-instance" xsi:noNamespaceSchemaLocation="http://sumo.dlr.de/xsd/net_file.xsd">

    <location netOffset="0.00,0.00" convBoundary="-100.00,50.00,100.00,50.00" origBoundary="10000000000.00,10000000000.00,-10000000000.00,-10000000000.00" projParameter="!"/>

    <edge id=":2_0" function="internal">
        <lane id=":2_0_0" index="0" speed="13.89" length="0.10" shape="0.00,48.40 0.00,48.40"/>
    </edge>

    <edge id="gneE8" from="1" to="2" priority="-1">
        <lane id="gneE8_0" index="0" speed="13.89" length="100.00" shape="-100.00,48.40 0.00,48.40"/>
    </edge>
    <edge id="gneE9" from="2" to="3" priority="-1">
        <lane id="gneE9_0" index="0" speed="13.89" length="100.00" shape="0.00,48.40 100.00,48.40"/>
    </edge>

    <junction id="1" type="dead_end" x="-100.00" y="50.00" incLanes="" intLanes="" shape="-100.00,50.00 -100.00,46.80"/>
    <junction id="2" type="priority" x="0.00" y="50.00" incLanes="gneE8_0" intLanes=":2_0_0" shape="0.00,50.00 0.00,46.80 0.00,50.00">
        <request index="0" response="0" foes="0" cont="0"/>
    </junction>
    <junction id="3" type="dead_end" x="100.00" y="50.00" incLanes="gneE9_0" intLanes="" shape="100.00,46.80 100.00,50.00"/>

    <connection from="gneE8" to="gneE9" fromLane="0" toLane="0" via=":2_0_0" dir="s" state="M"/>

    <connection from=":2_0" to="gneE9" fromLane="0" toLane="0" dir="s" state="M"/>

</net>
