<?xml version="1.0" encoding="UTF-8"?>

<!-- generated on 2021-04-28 17:00:48 by Eclipse SUMO netedit Version v1_9_0+0247-444d99e794
<configuration xmlns:xsi="http://www.w3.org/2001/XMLSchema-instance" xsi:noNamespaceSchemaLocation="http://sumo.dlr.de/xsd/netconvertConfiguration.xsd">

    <input>
        <sumo-net-file value="circles.net.xml"/>
    </input>

    <output>
        <output-file value="circles.net.xml"/>
    </output>

    <processing>
        <geometry.min-radius.fix.railways value="false"/>
        <geometry.max-grade.fix value="false"/>
        <offset.disable-normalization value="true"/>
        <lefthand value="false"/>
    </processing>

    <junctions>
        <no-turnarounds value="true"/>
        <junctions.corner-detail value="5"/>
        <junctions.limit-turn-speed value="5.5"/>
        <rectangular-lane-cut value="false"/>
    </junctions>

    <pedestrian>
        <walkingareas value="false"/>
    </pedestrian>

    <report>
        <aggregate-warnings value="5"/>
    </report>

</configuration>
-->

<net version="1.9" junctionCornerDetail="5" limitTurnSpeed="5.50" xmlns:xsi="http://www.w3.org/2001/XMLSchema-instance" xsi:noNamespaceSchemaLocation="http://sumo.dlr.de/xsd/net_file.xsd">

    <location netOffset="0.00,0.00" convBoundary="-83.17,-235.53,140.06,92.55" origBoundary="-10000000000.00,-10000000000.00,10000000000.00,10000000000.00" projParameter="!"/>

    <edge id=":gneJ10_0" function="internal">
        <lane id=":gneJ10_0_0" index="0" speed="11.83" length="7.85" shape="77.25,-70.44 75.12,-71.17 73.54,-71.20 71.91,-70.82 69.61,-70.34"/>
    </edge>
    <edge id=":gneJ10_1" function="internal">
        <lane id=":gneJ10_1_0" index="0" speed="6.75" length="4.57" shape="72.69,-76.09 71.96,-75.09 71.12,-74.32 70.17,-73.79 69.12,-73.50"/>
    </edge>
    <edge id=":gneJ11_0" function="internal">
        <lane id=":gneJ11_0_0" index="0" speed="10.33" length="5.69" shape="0.32,-59.46 -0.83,-59.84 -1.05,-61.14 -1.23,-62.71 -2.28,-63.90"/>
    </edge>
    <edge id=":gneJ11_1" function="internal">
        <lane id=":gneJ11_1_0" index="0" speed="9.06" length="4.54" shape="-0.18,-62.62 -1.59,-61.95 -2.01,-60.75 -2.25,-59.22 -2.32,-59.08"/>
    </edge>
    <edge id=":gneJ11_2" function="internal">
        <lane id=":gneJ11_2_0" index="0" speed="9.06" length="1.72" shape="-2.32,-59.08 -3.11,-57.55"/>
    </edge>
    <edge id=":gneJ12_0" function="internal">
        <lane id=":gneJ12_0_0" index="0" speed="4.07" length="1.52" shape="-46.78,-6.74 -47.00,-6.42 -47.13,-6.08 -47.17,-5.71 -47.12,-5.32"/>
    </edge>
    <edge id=":gneJ13_0" function="internal">
        <lane id=":gneJ13_0_0" index="0" speed="4.43" length="1.02" shape="-32.75,53.96 -32.67,54.25 -32.59,54.44 -32.45,54.60 -32.23,54.80"/>
    </edge>
    <edge id=":gneJ15_0" function="internal">
        <lane id=":gneJ15_0_0" index="0" speed="4.19" length="1.27" shape="-59.90,-89.09 -60.19,-89.24 -60.42,-89.44 -60.61,-89.69 -60.76,-89.98"/>
    </edge>
    <edge id=":gneJ16_0" function="internal">
        <lane id=":gneJ16_0_0" index="0" speed="4.24" length="1.25" shape="-84.67,-152.04 -84.79,-152.38 -84.82,-152.64 -84.78,-152.89 -84.65,-153.23"/>
    </edge>
    <edge id=":gneJ17_0" function="internal">
        <lane id=":gneJ17_0_0" index="0" speed="4.09" length="1.48" shape="-59.21,-213.77 -59.03,-214.10 -58.79,-214.37 -58.49,-214.57 -58.13,-214.70"/>
    </edge>
    <edge id=":gneJ18_0" function="internal">
        <lane id=":gneJ18_0_0" index="0" speed="4.34" length="1.11" shape="29.76,-237.08 30.08,-237.15 30.31,-237.17 30.53,-237.11 30.83,-236.98"/>
    </edge>
    <edge id=":gneJ19_0" function="internal">
        <lane id=":gneJ19_0_0" index="0" speed="4.03" length="1.64" shape="99.20,-205.20 99.57,-204.97 99.84,-204.69 100.02,-204.34 100.12,-203.93"/>
    </edge>
    <edge id=":gneJ20_0" function="internal">
        <lane id=":gneJ20_0_0" index="0" speed="4.39" length="1.06" shape="107.92,-134.96 107.94,-134.64 107.93,-134.42 107.85,-134.22 107.69,-133.95"/>
    </edge>
    <edge id=":gneJ6_0" function="internal">
        <lane id=":gneJ6_0_0" index="0" speed="4.10" length="1.43" shape="9.88,90.34 10.18,90.54 10.51,90.67 10.85,90.72 11.22,90.68"/>
    </edge>
    <edge id=":gneJ7_0" function="internal">
        <lane id=":gneJ7_0_0" index="0" speed="4.01" length="1.72" shape="119.13,69.47 119.55,69.33 119.90,69.10 120.16,68.79 120.35,68.38"/>
    </edge>
    <edge id=":gneJ8_0" function="internal">
        <lane id=":gneJ8_0_0" index="0" speed="13.89" length="0.70" shape="138.32,11.46 138.38,11.26 138.41,11.12 138.41,10.98 138.38,10.77"/>
    </edge>
    <edge id=":gneJ9_0" function="internal">
        <lane id=":gneJ9_0_0" index="0" speed="4.03" length="1.63" shape="131.20,-45.20 131.10,-45.61 130.91,-45.96 130.64,-46.24 130.27,-46.46"/>
    </edge>

    <edge id="edge1" from="gneJ11" to="gneJ12" priority="-1">
        <lane id="edge1_0" index="0" speed="13.89" length="67.00" shape="-3.11,-57.55 -46.78,-6.74"/>
    </edge>
    <edge id="edge10" from="gneJ15" to="gneJ16" priority="-1">
        <lane id="edge10_0" index="0" speed="13.89" length="66.51" shape="-60.76,-89.98 -84.67,-152.04"/>
    </edge>
    <edge id="edge11" from="gneJ16" to="gneJ17" priority="-1">
        <lane id="edge11_0" index="0" speed="13.89" length="65.66" shape="-84.65,-153.23 -59.21,-213.77"/>
    </edge>
    <edge id="edge12" from="gneJ17" to="gneJ18" priority="-1">
        <lane id="edge12_0" index="0" speed="13.89" length="90.70" shape="-58.13,-214.70 29.76,-237.08"/>
    </edge>
    <edge id="edge13" from="gneJ18" to="gneJ19" priority="-1">
        <lane id="edge13_0" index="0" speed="13.89" length="75.40" shape="30.83,-236.98 99.20,-205.20"/>
    </edge>
    <edge id="edge14" from="gneJ19" to="gneJ20" priority="-1">
        <lane id="edge14_0" index="0" speed="13.89" length="69.41" shape="100.12,-203.93 107.92,-134.96"/>
    </edge>
    <edge id="edge15" from="gneJ20" to="gneJ10" priority="-1">
        <lane id="edge15_0" index="0" speed="13.89" length="67.62" shape="107.69,-133.95 72.69,-76.09"/>
    </edge>
    <edge id="edge2" from="gneJ12" to="gneJ13" priority="-1">
        <lane id="edge2_0" index="0" speed="13.89" length="60.99" shape="-47.12,-5.32 -32.75,53.96"/>
    </edge>
    <edge id="edge3" from="gneJ13" to="gneJ6" priority="-1">
        <lane id="edge3_0" index="0" speed="13.89" length="55.10" shape="-32.23,54.80 9.88,90.34"/>
    </edge>
    <edge id="edge4" from="gneJ6" to="gneJ7" priority="-1">
        <lane id="edge4_0" index="0" speed="13.89" length="109.98" shape="11.22,90.68 119.13,69.47"/>
    </edge>
    <edge id="edge5" from="gneJ7" to="gneJ8" priority="-1">
        <lane id="edge5_0" index="0" speed="13.89" length="59.69" shape="120.35,68.38 138.32,11.46"/>
    </edge>
    <edge id="edge6" from="gneJ8" to="gneJ9" priority="-1">
        <lane id="edge6_0" index="0" speed="13.89" length="56.44" shape="138.38,10.77 131.20,-45.20"/>
    </edge>
    <edge id="edge7" from="gneJ9" to="gneJ10" priority="-1">
        <lane id="edge7_0" index="0" speed="13.89" length="58.20" shape="130.27,-46.46 77.25,-70.44"/>
    </edge>
    <edge id="edge8" from="gneJ10" to="gneJ11" priority="-1">
        <lane id="edge8_0" index="0" speed="13.89" length="70.15" shape="69.61,-70.34 0.32,-59.46"/>
        <lane id="edge8_1" index="1" speed="13.89" length="70.15" shape="69.12,-73.50 -0.18,-62.62"/>
    </edge>
    <edge id="edge9" from="gneJ11" to="gneJ15" priority="-1">
        <lane id="edge9_0" index="0" speed="13.89" length="62.89" shape="-2.28,-63.90 -59.90,-89.09"/>
    </edge>

    <junction id="gneJ10" type="priority" x="70.35" y="-75.31" incLanes="edge7_0 edge15_0" intLanes=":gneJ10_0_0 :gneJ10_1_0" shape="76.59,-68.98 77.91,-71.89 75.43,-73.20 74.64,-73.78 74.14,-74.32 73.95,-74.82 74.06,-75.27 71.33,-76.92 70.62,-76.00 70.22,-75.65 69.80,-75.39 69.35,-75.19 68.87,-75.08 69.86,-68.75 72.40,-69.35 73.32,-69.58 74.22,-69.65 75.25,-69.48">
        <request index="0" response="00" foes="00" cont="0"/>
        <request index="1" response="00" foes="00" cont="0"/>
    </junction>
    <junction id="gneJ11" type="priority" x="0.64" y="-64.37" incLanes="edge8_0 edge8_1" intLanes=":gneJ11_0_0 :gneJ11_2_0" shape="0.56,-57.88 -0.43,-64.20 -0.94,-64.37 -1.05,-64.61 -1.16,-64.89 -1.34,-65.15 -1.63,-65.36 -2.92,-62.43 -2.46,-61.74 -2.58,-61.17 -2.93,-60.46 -3.51,-59.60 -4.32,-58.60 -1.90,-56.51 -1.16,-57.29 -0.84,-57.51 -0.49,-57.66 -0.04,-57.78">
        <request index="0" response="00" foes="10" cont="0"/>
        <request index="1" response="01" foes="01" cont="1"/>
    </junction>
    <junction id="gneJ12" type="priority" x="-49.06" y="-6.54" incLanes="edge1_0" intLanes=":gneJ12_0_0" shape="-48.67,-4.95 -45.56,-5.70 -47.99,-7.78 -48.54,-6.92 -48.70,-6.45 -48.77,-5.97 -48.76,-5.47">
        <request index="0" response="0" foes="0" cont="0"/>
    </junction>
    <junction id="gneJ13" type="priority" x="-34.06" y="55.35" incLanes="edge2_0" intLanes=":gneJ13_0_0" shape="-33.26,56.02 -31.20,53.58 -34.31,54.33 -34.10,55.06 -33.98,55.30 -33.82,55.52 -33.59,55.74">
        <request index="0" response="0" foes="0" cont="0"/>
    </junction>
    <junction id="gneJ15" type="priority" x="-59.26" y="-90.55" incLanes="edge9_0" intLanes=":gneJ15_0_0" shape="-60.55,-87.62 -59.26,-90.55 -62.25,-89.40 -61.85,-88.65 -61.58,-88.33 -61.28,-88.06 -60.93,-87.82">
        <request index="0" response="0" foes="0" cont="0"/>
    </junction>
    <junction id="gneJ16" type="priority" x="-83.17" y="-152.61" incLanes="edge10_0" intLanes=":gneJ16_0_0" shape="-86.16,-151.46 -83.17,-152.61 -86.12,-153.85 -86.43,-152.99 -86.48,-152.66 -86.44,-152.33 -86.34,-151.95">
        <request index="0" response="0" foes="0" cont="0"/>
    </junction>
    <junction id="gneJ17" type="priority" x="-57.74" y="-213.15" incLanes="edge11_0" intLanes=":gneJ17_0_0" shape="-57.74,-213.15 -58.53,-216.25 -59.45,-215.87 -59.84,-215.59 -60.17,-215.25 -60.46,-214.85 -60.69,-214.39">
        <request index="0" response="0" foes="0" cont="0"/>
    </junction>
    <junction id="gneJ18" type="priority" x="30.16" y="-235.53" incLanes="edge12_0" intLanes=":gneJ18_0_0" shape="30.16,-235.53 31.51,-238.43 30.75,-238.75 30.46,-238.80 30.17,-238.80 29.82,-238.74 29.37,-238.63">
        <request index="0" response="0" foes="0" cont="0"/>
    </junction>
    <junction id="gneJ19" type="priority" x="98.53" y="-203.75" incLanes="edge13_0" intLanes=":gneJ19_0_0" shape="98.53,-203.75 101.71,-204.11 101.42,-205.18 101.15,-205.63 100.81,-206.03 100.38,-206.37 99.88,-206.65">
        <request index="0" response="0" foes="0" cont="0"/>
    </junction>
    <junction id="gneJ20" type="priority" x="106.33" y="-134.78" incLanes="edge14_0" intLanes=":gneJ20_0_0" shape="109.51,-135.13 106.33,-134.78 109.06,-133.12 109.44,-133.81 109.53,-134.07 109.56,-134.35 109.55,-134.69">
        <request index="0" response="0" foes="0" cont="0"/>
    </junction>
    <junction id="gneJ6" type="priority" x="10.02" y="92.55" incLanes="edge3_0" intLanes=":gneJ6_0_0" shape="11.53,92.25 10.91,89.11 8.85,91.56 9.67,92.08 10.10,92.23 10.56,92.31 11.03,92.32">
        <request index="0" response="0" foes="0" cont="0"/>
    </junction>
    <junction id="gneJ7" type="priority" x="121.30" y="70.67" incLanes="edge4_0" intLanes=":gneJ7_0_0" shape="121.87,68.86 118.82,67.90 119.44,71.04 120.54,70.63 120.98,70.31 121.35,69.91 121.65,69.42">
        <request index="0" response="0" foes="0" cont="0"/>
    </junction>
    <junction id="gneJ8" type="priority" x="140.06" y="11.27" incLanes="edge5_0" intLanes=":gneJ8_0_0" shape="139.97,10.57 136.80,10.98 139.85,11.94 139.99,11.45 140.02,11.27 140.02,11.08 140.01,10.86">
        <request index="0" response="0" foes="0" cont="0"/>
    </junction>
    <junction id="gneJ9" type="priority" x="132.56" y="-47.18" incLanes="edge6_0" intLanes=":gneJ9_0_0" shape="129.61,-45.00 132.79,-45.41 132.48,-46.47 132.21,-46.92 131.86,-47.31 131.44,-47.64 130.93,-47.92">
        <request index="0" response="0" foes="0" cont="0"/>
    </junction>

    <junction id=":gneJ11_2_0" type="internal" x="-2.32" y="-59.08" incLanes=":gneJ11_1_0 edge8_0" intLanes=":gneJ11_0_0"/>

    <connection from="edge1" to="edge2" fromLane="0" toLane="0" via=":gneJ12_0_0" dir="r" state="M"/>
    <connection from="edge10" to="edge11" fromLane="0" toLane="0" via=":gneJ16_0_0" dir="s" state="M"/>
    <connection from="edge11" to="edge12" fromLane="0" toLane="0" via=":gneJ17_0_0" dir="l" state="M"/>
    <connection from="edge12" to="edge13" fromLane="0" toLane="0" via=":gneJ18_0_0" dir="s" state="M"/>
    <connection from="edge13" to="edge14" fromLane="0" toLane="0" via=":gneJ19_0_0" dir="l" state="M"/>
    <connection from="edge14" to="edge15" fromLane="0" toLane="0" via=":gneJ20_0_0" dir="s" state="M"/>
    <connection from="edge15" to="edge8" fromLane="0" toLane="1" via=":gneJ10_1_0" dir="l" state="M"/>
    <connection from="edge2" to="edge3" fromLane="0" toLane="0" via=":gneJ13_0_0" dir="s" state="M"/>
    <connection from="edge3" to="edge4" fromLane="0" toLane="0" via=":gneJ6_0_0" dir="r" state="M"/>
    <connection from="edge4" to="edge5" fromLane="0" toLane="0" via=":gneJ7_0_0" dir="r" state="M"/>
    <connection from="edge5" to="edge6" fromLane="0" toLane="0" via=":gneJ8_0_0" dir="s" state="M"/>
    <connection from="edge6" to="edge7" fromLane="0" toLane="0" via=":gneJ9_0_0" dir="r" state="M"/>
    <connection from="edge7" to="edge8" fromLane="0" toLane="0" via=":gneJ10_0_0" dir="s" state="M"/>
    <connection from="edge8" to="edge9" fromLane="0" toLane="0" via=":gneJ11_0_0" dir="s" state="M"/>
    <connection from="edge8" to="edge1" fromLane="1" toLane="0" via=":gneJ11_1_0" dir="R" state="m"/>
    <connection from="edge9" to="edge10" fromLane="0" toLane="0" via=":gneJ15_0_0" dir="l" state="M"/>

    <connection from=":gneJ10_0" to="edge8" fromLane="0" toLane="0" dir="s" state="M"/>
    <connection from=":gneJ10_1" to="edge8" fromLane="0" toLane="1" dir="l" state="M"/>
    <connection from=":gneJ11_0" to="edge9" fromLane="0" toLane="0" dir="s" state="M"/>
    <connection from=":gneJ11_1" to="edge1" fromLane="0" toLane="0" via=":gneJ11_2_0" dir="R" state="m"/>
    <connection from=":gneJ11_2" to="edge1" fromLane="0" toLane="0" dir="R" state="M"/>
    <connection from=":gneJ12_0" to="edge2" fromLane="0" toLane="0" dir="r" state="M"/>
    <connection from=":gneJ13_0" to="edge3" fromLane="0" toLane="0" dir="s" state="M"/>
    <connection from=":gneJ15_0" to="edge10" fromLane="0" toLane="0" dir="l" state="M"/>
    <connection from=":gneJ16_0" to="edge11" fromLane="0" toLane="0" dir="s" state="M"/>
    <connection from=":gneJ17_0" to="edge12" fromLane="0" toLane="0" dir="l" state="M"/>
    <connection from=":gneJ18_0" to="edge13" fromLane="0" toLane="0" dir="s" state="M"/>
    <connection from=":gneJ19_0" to="edge14" fromLane="0" toLane="0" dir="l" state="M"/>
    <connection from=":gneJ20_0" to="edge15" fromLane="0" toLane="0" dir="s" state="M"/>
    <connection from=":gneJ6_0" to="edge4" fromLane="0" toLane="0" dir="r" state="M"/>
    <connection from=":gneJ7_0" to="edge5" fromLane="0" toLane="0" dir="r" state="M"/>
    <connection from=":gneJ8_0" to="edge6" fromLane="0" toLane="0" dir="s" state="M"/>
    <connection from=":gneJ9_0" to="edge7" fromLane="0" toLane="0" dir="r" state="M"/>

</net>
